.subckt inv<> !GND !Vdd x y
* BEGIN node aliases
* 	bool port aliases:
* 	1: !GND @[ supply_low port-alias ]
* 	2: !Vdd @[ supply_high port-alias ]
* 	3: x = j @[ port-alias loc-FO- loc-FO+ ]
* 	4: y = k @[ port-alias loc-FI- loc-FI+ ]
* END node aliases
My:dn:0 !GND x y !GND nch W=5u L=2u
My:up:0 !Vdd x y !Vdd pch W=5u L=2u
.ends


