.subckt celem<> !GND !Vdd a b o
Mo:dn:0 !GND a #0 !GND nch W=5u L=2u
Mo:dn:1 #0 b o !GND nch W=5u L=2u
Mo:up:0 !Vdd a #1 !Vdd pch W=5u L=2u
Mo:up:1 #1 b o !Vdd pch W=5u L=2u
.ends

xfoo !GND !Vdd foo.a foo.b foo.o celem<>

