.subckt celem<> !GND !Vdd a b o
Mo:dn:0 !GND a #0 !GND nch W=0.15U L=0.06U
+ AS=0.045P PS=0.9U AD=0.018P PD=0.24U
Mo:dn:1 #0 b o !GND nch W=0.15U L=0.06U
+ AS=0.018P PS=0.24U AD=0.045P PD=0.9U
Mo:up:0 !Vdd a #1 !Vdd pch W=0.3U L=0.06U
+ AS=0.09P PS=1.2U AD=0.036P PD=0.24U
Mo:up:1 #1 b o !Vdd pch W=0.3U L=0.06U
+ AS=0.036P PS=0.24U AD=0.09P PD=1.2U
.ends

xfoo !GND !Vdd foo.a foo.b foo.o celem<>

