.subckt foo<> !GND !Vdd en en2 x y z w a b c
M@_int:dn:0 !GND x @_int !GND nch W=40u L=4u
Ma:dn:0 @_int y #0 !GND nch W=20u L=2u
Ma:dn:1 #0 z a !GND nch W=20u L=2u
Mb:dn:0:pchg !Vdd en #1 !Vdd pch_hvt W=12u L=2u
Mb:dn:1:pchg #1 en2 @_int !Vdd pch W=12u L=2u
Mb:dn:2 @_int z #2 !GND nch W=40u L=4u
Mb:dn:3 #2 w b !GND nch W=40u L=4u
Mc:dn:0 @_int w #3 !GND nch W=40u L=4u
Mc:dn:1 #3 z #4 !GND nch_lvt W=30u L=2u
Mc:dn:2 #4 y c !GND nch W=30u L=2u
.ends

xbar !GND !Vdd bar.en bar.en2 bar.x bar.y bar.z bar.w bar.a bar.b bar.c foo<>

