.subckt pull_down<> !GND a b
Mb:dn:0 !GND a b !GND nch W=5u L=2u
.ends

.subckt pull_up<> !Vdd a b
Mb:up:0 !Vdd a b !Vdd pch W=5u L=2u
.ends

xd !GND a b pull_down<>
xu !Vdd a b pull_up<>

