.subckt foo<> x _y
M0_ GND x _y GND nch W=5u L=2u
M1_ Vdd x _y Vdd pch W=5u L=2u
.ends

xbar bar.x bar._y foo<>

