.subckt foo<> en x _y
M0_ GND en @a GND nch W=5u L=2u
M1_ @a x _y GND nch W=5u L=2u
.ends

xbar bar.en bar.x bar._y foo<>

