.subckt foo<> _y en x
M0_ GND en @a GND nch W=5u L=2u
M1_ @a x _y GND nch W=5u L=2u
.ends

xbar bar._y bar.en bar.x foo<>

