.subckt foo<> !GND !Vdd x _y
M_y:dn:0 !GND x _y !GND nch W=5u L=2u
M_y:up:0 !Vdd x _y !Vdd pch W=5u L=2u
.ends

xbar !GND !Vdd bar.x bar._y foo<>

