.subckt foo<> !GND clk en
M@gn1:dn:0 !GND en @gn1 !GND nch W=24u L=2u
Mn0:dn:0 @gn1 clk n0 !GND nch W=24u L=2u
.ends


* --- WARNINGS ---
Warning: output port node foo<>::clkout has no PRS fanin.
Warnings found (1) while creating complete type foo<>.
