.subckt foo<>::INTSUB:0 GND @a _y en x
M0_ GND en @a GND nch W=5u L=2u
M1_ @a x _y GND nch W=5u L=2u
.ends
.subckt foo<> en x _y
xINTSUB:0:inst GND @a _y en x foo<>::INTSUB:0
.ends

xbar bar.en bar.x bar._y foo<>

