.subckt foo<>::INTSUB:0 GND @a en
M0_ GND en @a GND nch W=5u L=2u
.ends
.subckt foo<> GND en x _y
xINTSUB:0:inst GND @a en foo<>::INTSUB:0
M0_ @a x _y GND nch W=5u L=2u
.ends

xbar GND bar.en bar.x bar._y foo<>

