* subcircuit c1of2<> is empty.
.subckt add<> en a.d[0] a.d[1] b.d[0] b.d[1] c.d[0] c.d[1] s.d[0] s.d[1]
M0_ GND en @foot GND nch W=5u L=2u
M1_ @foot a.d[1] @odd_a GND nch W=5u L=2u
M2_ @odd_a b.d[0] @odd_b GND nch W=5u L=2u
M3_ @foot a.d[0] @even_a GND nch W=5u L=2u
M4_ @even_a b.d[1] @odd_b GND nch W=5u L=2u
M5_ @odd_b c.d[1] _s[0] GND nch W=5u L=2u
M6_ @odd_a b.d[1] @even_b GND nch W=5u L=2u
M7_ @even_a b.d[0] @even_b GND nch W=5u L=2u
M8_ @even_b c.d[0] _s[0] GND nch W=5u L=2u
M9_ @odd_b c.d[0] _s[1] GND nch W=5u L=2u
M10_ @even_b c.d[1] _s[1] GND nch W=5u L=2u
M11_ Vdd en _s[0] Vdd pch W=5u L=2u
M12_ Vdd en _s[1] Vdd pch W=5u L=2u
M13_ GND _s[0] s.d[0] GND nch W=5u L=2u
M14_ Vdd _s[0] s.d[0] Vdd pch W=5u L=2u
M15_ GND _s[1] s.d[1] GND nch W=5u L=2u
M16_ Vdd _s[1] s.d[1] Vdd pch W=5u L=2u
.ends

xup up.en up.a.d[0] up.a.d[1] up.b.d[0] up.b.d[1] up.c.d[0] up.c.d[1] up.s.d[0] up.s.d[1] add<>

