.subckt foo<> !GND en x _y
M@a:dn:0 !GND en @a !GND nch W=5u L=2u
M_y:dn:0 @a x _y !GND nch W=5u L=2u
.ends

xbar !GND bar.en bar.x bar._y foo<>

