.subckt foo<>::INTSUB:0 @a !GND _y en x
M@a:dn:0 !GND en @a !GND nch W=5u L=2u
M_y:dn:0 @a x _y !GND nch W=5u L=2u
.ends
.subckt foo<> !GND en x _y
xINTSUB:0:inst @a !GND _y en x foo<>::INTSUB:0
.ends

xbar !GND bar.en bar.x bar._y foo<>

