.subckt inv<> x y
M0_ GND x y GND nch W=5u L=2u
M1_ Vdd x y Vdd pch W=5u L=2u
.ends

.subckt foo<> p q
xi p q inv<>
.ends

xbar bar.p bar.q foo<>

