.subckt inv<> x y
M0_ GND x y GND nch W=5u L=2u
M1_ Vdd x y Vdd pch W=5u L=2u
.ends

.subckt foo<> a c
xp a c inv<>
xq c b inv<>
.ends

xbar bar.a bar.c foo<>

