.subckt inv<> x y
M0_ GND x y GND nch W=5u L=2u
M1_ Vdd x y Vdd pch W=5u L=2u
.ends

.subckt foo<> a c
xp a b inv<>
xq b c inv<>
.ends

.subckt bar<> a c
xp a b foo<>
xq b c foo<>
.ends

xnone none.a none.c bar<>

