.subckt bad_inv<> GND Vdd a
M0_ GND a b GND nch W=5u L=2u
M1_ Vdd a b Vdd pch W=5u L=2u
.ends

xbar GND Vdd bar.a bad_inv<>

