.subckt inv<> x y
M0_ GND x y GND nch W=5u L=2u
M1_ Vdd x y Vdd pch W=5u L=2u
.ends

.subckt foo<> a c
xp a c inv<>
.ends

.subckt bar<> a c
xp a c foo<>
.ends

xnone none.a none.c bar<>

