.subckt foo<> !GND !Vdd en a b o
M0_ !GND en #0 !GND nch W=0.15U L=0.06U
+ AS=0.045P PS=0.9U AD=0.036P PD=0.78U
M1_:pchg !Vdd en #0 !Vdd pch W=0.3U L=0.06U
+ AS=0.09P PS=1.2U AD=0.072P PD=1.08U
M2_ #0 a #1 !GND nch W=0.15U L=0.06U
+ AS=0.036P PS=0.78U AD=0.036P PD=0.78U
M3_ #1 b _o !GND nch W=0.15U L=0.06U
+ AS=0.036P PS=0.78U AD=0.045P PD=0.9U
M4_ !Vdd en _o !Vdd pch W=0.3U L=0.06U
+ AS=0.09P PS=1.2U AD=0.09P PD=1.2U
M5_ !GND _o o !GND nch W=0.15U L=0.06U
+ AS=0.045P PS=0.9U AD=0.045P PD=0.9U
M6_ !Vdd _o o !Vdd pch W=0.3U L=0.06U
+ AS=0.09P PS=1.2U AD=0.09P PD=1.2U
M7_:keeper !GND o _o !GND nch W=0.15U L=0.6U
+ AS=0.045P PS=0.9U AD=0.045P PD=0.9U
M8_:keeper !Vdd o _o !Vdd pch W=0.15U L=0.6U
+ AS=0.045P PS=0.9U AD=0.045P PD=0.9U
.ends

xbar !GND !Vdd bar.en bar.a bar.b bar.o foo<>

