* subcircuit e1of_TEMP2LATE_ is empty.
.subckt std_SCP_logic_SCP_celem_TEMP2_COM_10LATE_ GND Vdd in_IND0EX_ in_IND1EX_ o
M0_ GND in_IND0EX_ _PND_0 GND nch W=5u L=2u
M1_ _PND_0 in_IND1EX_ ____o GND nch W=5u L=2u
M2_ Vdd in_IND0EX_ _PND_1 Vdd pch W=5u L=2u
M3_ _PND_1 in_IND1EX_ ____o Vdd pch W=5u L=2u
M4_ GND ____o o GND nch W=10u L=2u
M5_ Vdd ____o o Vdd pch W=10u L=2u
.ends

xcomp GND Vdd oe_IND0EX_ oe_IND1EX_ in_DOT_e std_SCP_logic_SCP_celem_TEMP2_COM_10LATE_

