.subckt foo_TEMPLATE_ _BANG_GND en x ____y
M0_ _BANG_GND en _AT_a _BANG_GND nch W=5u L=2u
M1_ _AT_a x ____y _BANG_GND nch W=5u L=2u
.ends

xbar _BANG_GND bar_DOT_en bar_DOT_x bar_DOT_____y foo_TEMPLATE_

