.subckt inv<> !GND !Vdd x y
* BEGIN node caps
* 	!GND [ndiff_perim=22u, ndiff_area=30p, ndrain_terms=1, pdiff_perim=0u, pdiff_area=0p, pdrain_terms=0, gate_area=0p, gate_terms=0, wire_area=0p]
* 	!Vdd [ndiff_perim=0u, ndiff_area=0p, ndrain_terms=0, pdiff_perim=22u, pdiff_area=30p, pdrain_terms=1, gate_area=0p, gate_terms=0, wire_area=0p]
* 	y [ndiff_perim=22u, ndiff_area=30p, ndrain_terms=1, pdiff_perim=22u, pdiff_area=30p, pdrain_terms=1, gate_area=0p, gate_terms=0, wire_area=0p]
* 	x [ndiff_perim=0u, ndiff_area=0p, ndrain_terms=0, pdiff_perim=0u, pdiff_area=0p, pdrain_terms=0, gate_area=20p, gate_terms=2, wire_area=0p]
* END node caps
My:dn:0 !GND x y !GND nch W=5u L=2u
My:up:0 !Vdd x y !Vdd pch W=5u L=2u
.ends

* BEGIN node caps
* 	!GND [ndiff_perim=44u, ndiff_area=60p, ndrain_terms=2, pdiff_perim=0u, pdiff_area=0p, pdrain_terms=0, gate_area=0p, gate_terms=0, wire_area=0p]
* 	!Vdd [ndiff_perim=0u, ndiff_area=0p, ndrain_terms=0, pdiff_perim=44u, pdiff_area=60p, pdrain_terms=2, gate_area=0p, gate_terms=0, wire_area=0p]
* 	a [ndiff_perim=0u, ndiff_area=0p, ndrain_terms=0, pdiff_perim=0u, pdiff_area=0p, pdrain_terms=0, gate_area=20p, gate_terms=2, wire_area=0p]
* 	b [ndiff_perim=22u, ndiff_area=30p, ndrain_terms=1, pdiff_perim=22u, pdiff_area=30p, pdrain_terms=1, gate_area=20p, gate_terms=2, wire_area=0p]
* 	c [ndiff_perim=22u, ndiff_area=30p, ndrain_terms=1, pdiff_perim=22u, pdiff_area=30p, pdrain_terms=1, gate_area=0p, gate_terms=0, wire_area=0p]
* END node caps
xx !GND !Vdd a b inv<>
xy !GND !Vdd b c inv<>

