.subckt foo<> !GND !Vdd a b c
M_c:dn:0 !GND a #0 !GND nch W=5u L=2u
M_c:dn:1 #0 b _c !GND nch W=5u L=2u
M_c:up:0 !Vdd a #1 !Vdd pch W=5u L=2u
M_c:up:1 #1 b _c !Vdd pch W=5u L=2u
Mc:dn:0 !GND _c c !GND nch W=5u L=2u
Mc:up:0 !Vdd _c c !Vdd pch W=5u L=2u
.ends

xbar !GND !Vdd bar.a bar.b bar.c foo<>

