.subckt full_pass<10> !GND !Vdd g _g s d
Md:dn:0:pass s g d !GND nch W=10u L=4u
Md:up:0:pass s _g d !Vdd pch W=10u L=3u
.ends

xfoo !GND !Vdd foo.g foo._g foo.s foo.d full_pass<10>

