.subckt full_pass<> !GND !Vdd g _g s d
M0_ s g d !GND nch W=5u L=2u
M1_ s _g d !Vdd pch W=5u L=2u
.ends

xfoo !GND !Vdd foo.g foo._g foo.s foo.d full_pass<>

