.subckt full_pass<10> !GND !Vdd g _g s d
Md:dn:0 s g d !GND nch W=10u L=2u
Md:up:0 s _g d !Vdd pch W=10u L=2u
.ends

xfoo !GND !Vdd foo.g foo._g foo.s foo.d full_pass<10>

