.subckt full_pass<> !GND !Vdd g _g s d
Md:dn:0:pass s g d !GND nch W=5u L=2u
Md:up:0:pass s _g d !Vdd pch W=5u L=2u
.ends

xfoo !GND !Vdd foo.g foo._g foo.s foo.d full_pass<>

