.subckt full_pass<> g _g s d
M0_ s g d GND nch W=5u L=2u
M1_ s _g d Vdd pch W=5u L=2u
.ends

xfoo foo.g foo._g foo.s foo.d full_pass<>

