.subckt full_pass<10> _g d g s
M0_ s g d GND nch W=10u L=2u
M1_ s _g d Vdd pch W=10u L=2u
.ends

xfoo foo._g foo.d foo.g foo.s full_pass<10>

