.subckt full_pass<10> g _g s d
M0_ s g d GND nch W=10u L=4u
M1_ s _g d Vdd pch W=10u L=3u
.ends

xfoo foo.g foo._g foo.s foo.d full_pass<10>

