.subckt inv2<> !GND !Vdd in mid out dummy
* BEGIN node port info
* 	!GND : input
* 	!Vdd : input
* 	in : input
* 	mid : inout
* 	out : output
* 	dummy : input
* END node port info
Mmid:dn:0 !GND in mid !GND nch W=5u L=2u
Mmid:up:0 !Vdd in mid !Vdd pch W=5u L=2u
Mout:dn:0 !GND mid out !GND nch W=5u L=2u
Mout:up:0 !Vdd mid out !Vdd pch W=5u L=2u
.ends

* BEGIN node port info
* END node port info
xx !GND !Vdd a b c x.dummy inv2<>
xy !GND !Vdd c d e y.dummy inv2<>

