.subckt foo<> !GND !Vdd x z
Mz:dn:0 !GND x z !GND nch W=5u L=2u
Mz:up:0 !Vdd x z !Vdd pch W=5u L=2u
.ends

xbar !GND !Vdd bar.x bar.z foo<>

