.subckt foo<> x y
M0_ GND x y GND nch W=5u L=2u
M1_ Vdd x y Vdd pch W=5u L=2u
.ends

xbar bar.x bar.y foo<>

