.subckt foo<> GND Vdd y z
M0_ GND y z GND nch W=5u L=2u
M1_ Vdd y z Vdd pch W=5u L=2u
.ends

xbar GND Vdd bar.y bar.z foo<>

