.subckt foo<> !GND !Vdd x y
My:dn:0 !GND x y !GND nch W=5u L=2u
My:up:0 !Vdd x y !Vdd pch W=5u L=2u
.ends

xbar !GND !Vdd bar.x bar.y foo<>

