.subckt foo<> !GND !Vdd y z
Mz:dn:0 !GND y z !GND nch W=5u L=2u
Mz:up:0 !Vdd y z !Vdd pch W=5u L=2u
.ends

xbar !GND !Vdd bar.y bar.z foo<>

