.subckt foo<> !GND !Vdd en a b _o _p
M@i:dn:0 !GND en @i !GND nch W=5u L=2u
M_o:dn:0:pchg !Vdd en @i !Vdd pch W=5u L=2u
M_o:dn:1 @i a _o !GND nch W=5u L=2u
M_p:dn:0 @i b _p !GND nch W=5u L=2u
.ends

xbar !GND !Vdd bar.en bar.a bar.b bar._o bar._p foo<>

