* subcircuit globals<> is empty.

.subckt inv<> G.thisVdd G.thisGND G.Vdd G.GND in[0] in[1] out[0] out[1]
Mout[0]:dn:0 G.thisGND in[0] out[0] G.thisGND nch W=5u L=2u
Mout[0]:up:0 G.thisVdd in[0] out[0] G.thisVdd pch W=5u L=2u
Mout[1]:dn:0 G.GND in[1] out[1] G.GND nch W=5u L=2u
Mout[1]:up:0 G.Vdd in[1] out[1] G.Vdd pch W=5u L=2u
.ends

xfoo foo.G.thisVdd foo.G.thisGND foo.G.Vdd foo.G.GND foo.in[0] foo.in[1] foo.out[0] foo.out[1] inv<>

