.subckt dummy<> in out
.ends

xyummy yummy.in yummy.out dummy<>

