.subckt dummy<> in out
.ends

xyummy f g dummy<>

