.subckt dummy<> in out
.ends

.subckt chain<> x y
xyummy x b dummy<>
xtummy b y dummy<>
.ends

xfools p q chain<>

