.subckt inv<_DQ_vanilla_DQ_> !GND !Vdd x y
My:dn:0 !GND x y !GND nch W=5u L=2u
My:up:0 !Vdd x y !Vdd pch W=5u L=2u
.ends

.subckt inv<_DQ_cherry_DQ_> !GND !Vdd x y
My:dn:0 !GND x y !GND nch W=5u L=2u
My:up:0 !Vdd x y !Vdd pch W=5u L=2u
.ends

xp !GND !Vdd a b inv<_DQ_vanilla_DQ_>
xq !GND !Vdd b c inv<_DQ_cherry_DQ_>

