.subckt foo<4,5> !GND !Vdd x y z[0] z[1] z[2] z[3]
Mz[0]:dn:0 !GND x #0 !GND nch W=5u L=2u
Mz[0]:dn:1 #0 y z[0] !GND nch W=5u L=2u
Mz[0]:up:0 !Vdd x #1 !Vdd pch W=5u L=2u
Mz[0]:up:1 #1 y z[0] !Vdd pch W=5u L=2u
Mz[1]:dn:0 !GND x #2 !GND nch W=10u L=2u
Mz[1]:dn:1 #2 y z[1] !GND nch W=10u L=2u
Mz[1]:up:0 !Vdd x #3 !Vdd pch W=10u L=2u
Mz[1]:up:1 #3 y z[1] !Vdd pch W=10u L=2u
Mz[2]:dn:0 !GND x #4 !GND nch W=15u L=2u
Mz[2]:dn:1 #4 y z[2] !GND nch W=15u L=2u
Mz[2]:up:0 !Vdd x #5 !Vdd pch W=15u L=2u
Mz[2]:up:1 #5 y z[2] !Vdd pch W=15u L=2u
Mz[3]:dn:0 !GND x #6 !GND nch W=20u L=2u
Mz[3]:dn:1 #6 y z[3] !GND nch W=20u L=2u
Mz[3]:up:0 !Vdd x #7 !Vdd pch W=20u L=2u
Mz[3]:up:1 #7 y z[3] !Vdd pch W=20u L=2u
.ends

xbar !GND !Vdd bar.x bar.y bar.z[0] bar.z[1] bar.z[2] bar.z[3] foo<4,5>

