.subckt celem<4> !GND !Vdd a[0] a[1] a[2] a[3] _o
M_o:dn:0 !GND a[0] #0 !GND nch W=20u L=2u
M_o:dn:1 #0 a[1] #1 !GND nch W=20u L=2u
M_o:dn:2 #1 a[2] #2 !GND nch W=20u L=2u
M_o:dn:3 #2 a[3] _o !GND nch W=20u L=2u
M_o:up:0 !Vdd a[0] #3 !Vdd pch W=40u L=2u
M_o:up:1 #3 a[1] #4 !Vdd pch W=40u L=2u
M_o:up:2 #4 a[2] #5 !Vdd pch W=40u L=2u
M_o:up:3 #5 a[3] _o !Vdd pch W=40u L=2u
.ends

xfoo !GND !Vdd foo.a[0] foo.a[1] foo.a[2] foo.a[3] foo._o celem<4>

