* channel or struct pfoo<> is omitted.

* channel or struct pbar<> is omitted.

* channel or struct pick<> is omitted.

.subckt invert_it<> !GND !Vdd p.b.b.b q.a.a.a q.a.b.a q.b.a.b
Mx:dn:0 !GND p.b.b.b x !GND nch W=5u L=2u
Mx:up:0 !Vdd p.b.b.b x !Vdd pch W=5u L=2u
My:dn:0 !GND x y !GND nch W=5u L=2u
My:up:0 !Vdd x y !Vdd pch W=5u L=2u
Mq.b.a.b:dn:0 !GND x q.b.a.b !GND nch W=5u L=2u
Mq.b.a.b:up:0 !Vdd x q.b.a.b !Vdd pch W=5u L=2u
Mq.a.a.a:dn:0 !GND y q.a.a.a !GND nch W=5u L=2u
Mq.a.a.a:up:0 !Vdd y q.a.a.a !Vdd pch W=5u L=2u
Mq.a.b.a:dn:0 !GND p.b.b.b q.a.b.a !GND nch W=5u L=2u
Mq.a.b.a:up:0 !Vdd p.b.b.b q.a.b.a !Vdd pch W=5u L=2u
.ends

.subckt invert_them<> !GND !Vdd p q
xdee !GND !Vdd p l.a.a.a l.a.b.a l.b.a.b invert_it<>
xdum !GND !Vdd l.b.b.b q k.a.b.a k.b.a.b invert_it<>
.ends

xnow !GND !Vdd now.p now.q invert_them<>

* --- WARNINGS ---
Warning: node l.b.b.b is used but not driven!
... in subcircuit invert_them<>
