.subckt inv_c<>::first !GND !Vdd _x a x
* BEGIN node caps
* 	!GND [ndiff_perim=44u, ndiff_area=60p, ndrain_terms=0, pdiff_perim=0u, pdiff_area=0p, pdrain_terms=0, gate_area=0p, gate_terms=0, wire_area=0p]
* 	!Vdd [ndiff_perim=0u, ndiff_area=0p, ndrain_terms=0, pdiff_perim=44u, pdiff_area=60p, pdrain_terms=0, gate_area=0p, gate_terms=0, wire_area=0p]
* 	_x [ndiff_perim=22u, ndiff_area=30p, ndrain_terms=1, pdiff_perim=22u, pdiff_area=30p, pdrain_terms=1, gate_area=20p, gate_terms=2, wire_area=0p]
* 	a [ndiff_perim=0u, ndiff_area=0p, ndrain_terms=0, pdiff_perim=0u, pdiff_area=0p, pdrain_terms=0, gate_area=20p, gate_terms=2, wire_area=0p]
* 	x [ndiff_perim=22u, ndiff_area=30p, ndrain_terms=1, pdiff_perim=22u, pdiff_area=30p, pdrain_terms=1, gate_area=0p, gate_terms=0, wire_area=0p]
* END node caps
M_x:dn:0 !GND a _x !GND nch W=5u L=2u
+ AS=30p PS=22u AD=30p PD=22u
M_x:up:0 !Vdd a _x !Vdd pch W=5u L=2u
+ AS=30p PS=22u AD=30p PD=22u
Mx:dn:0 !GND _x x !GND nch W=5u L=2u
+ AS=30p PS=22u AD=30p PD=22u
Mx:up:0 !Vdd _x x !Vdd pch W=5u L=2u
+ AS=30p PS=22u AD=30p PD=22u
.ends
.subckt inv_c<>::second !GND !Vdd x _y b
* BEGIN node caps
* 	!GND [ndiff_perim=44u, ndiff_area=60p, ndrain_terms=0, pdiff_perim=0u, pdiff_area=0p, pdrain_terms=0, gate_area=0p, gate_terms=0, wire_area=0p]
* 	!Vdd [ndiff_perim=0u, ndiff_area=0p, ndrain_terms=0, pdiff_perim=44u, pdiff_area=60p, pdrain_terms=0, gate_area=0p, gate_terms=0, wire_area=0p]
* 	x [ndiff_perim=0u, ndiff_area=0p, ndrain_terms=0, pdiff_perim=0u, pdiff_area=0p, pdrain_terms=0, gate_area=20p, gate_terms=2, wire_area=0p]
* 	_y [ndiff_perim=22u, ndiff_area=30p, ndrain_terms=1, pdiff_perim=22u, pdiff_area=30p, pdrain_terms=1, gate_area=20p, gate_terms=2, wire_area=0p]
* 	b [ndiff_perim=22u, ndiff_area=30p, ndrain_terms=1, pdiff_perim=22u, pdiff_area=30p, pdrain_terms=1, gate_area=0p, gate_terms=0, wire_area=0p]
* END node caps
M_y:dn:0 !GND x _y !GND nch W=5u L=2u
+ AS=30p PS=22u AD=30p PD=22u
M_y:up:0 !Vdd x _y !Vdd pch W=5u L=2u
+ AS=30p PS=22u AD=30p PD=22u
Mb:dn:0 !GND _y b !GND nch W=5u L=2u
+ AS=30p PS=22u AD=30p PD=22u
Mb:up:0 !Vdd _y b !Vdd pch W=5u L=2u
+ AS=30p PS=22u AD=30p PD=22u
.ends
.subckt inv_c<> !GND !Vdd a b
* BEGIN node caps
* 	!GND [ndiff_perim=88u, ndiff_area=120p, ndrain_terms=0, pdiff_perim=0u, pdiff_area=0p, pdrain_terms=0, gate_area=0p, gate_terms=0, wire_area=0p]
* 	!Vdd [ndiff_perim=0u, ndiff_area=0p, ndrain_terms=0, pdiff_perim=88u, pdiff_area=120p, pdrain_terms=0, gate_area=0p, gate_terms=0, wire_area=0p]
* 	_x [ndiff_perim=22u, ndiff_area=30p, ndrain_terms=1, pdiff_perim=22u, pdiff_area=30p, pdrain_terms=1, gate_area=20p, gate_terms=2, wire_area=0p]
* 	a [ndiff_perim=0u, ndiff_area=0p, ndrain_terms=0, pdiff_perim=0u, pdiff_area=0p, pdrain_terms=0, gate_area=20p, gate_terms=2, wire_area=0p]
* 	x [ndiff_perim=22u, ndiff_area=30p, ndrain_terms=1, pdiff_perim=22u, pdiff_area=30p, pdrain_terms=1, gate_area=20p, gate_terms=2, wire_area=0p]
* 	_y [ndiff_perim=22u, ndiff_area=30p, ndrain_terms=1, pdiff_perim=22u, pdiff_area=30p, pdrain_terms=1, gate_area=20p, gate_terms=2, wire_area=0p]
* 	b [ndiff_perim=22u, ndiff_area=30p, ndrain_terms=1, pdiff_perim=22u, pdiff_area=30p, pdrain_terms=1, gate_area=0p, gate_terms=0, wire_area=0p]
* END node caps
xfirst:inst !GND !Vdd _x a x inv_c<>::first
xsecond:inst !GND !Vdd x _y b inv_c<>::second
.ends

* BEGIN node caps
* 	!GND [ndiff_perim=88u, ndiff_area=120p, ndrain_terms=0, pdiff_perim=0u, pdiff_area=0p, pdrain_terms=0, gate_area=0p, gate_terms=0, wire_area=0p]
* 	!Vdd [ndiff_perim=0u, ndiff_area=0p, ndrain_terms=0, pdiff_perim=88u, pdiff_area=120p, pdrain_terms=0, gate_area=0p, gate_terms=0, wire_area=0p]
* 	foo.a [ndiff_perim=0u, ndiff_area=0p, ndrain_terms=0, pdiff_perim=0u, pdiff_area=0p, pdrain_terms=0, gate_area=20p, gate_terms=2, wire_area=0p]
* 	foo.b [ndiff_perim=22u, ndiff_area=30p, ndrain_terms=1, pdiff_perim=22u, pdiff_area=30p, pdrain_terms=1, gate_area=0p, gate_terms=0, wire_area=0p]
* END node caps
xfoo !GND !Vdd foo.a foo.b inv_c<>

