.subckt inv_c<>::first !GND !Vdd _x a x
M_x:dn:0 !GND a _x !GND nch W=5u L=2u
M_x:up:0 !Vdd a _x !Vdd pch W=5u L=2u
Mx:dn:0 !GND _x x !GND nch W=5u L=2u
Mx:up:0 !Vdd _x x !Vdd pch W=5u L=2u
.ends
.subckt inv_c<>::second !GND !Vdd x _y b
M_y:dn:0 !GND x _y !GND nch W=5u L=2u
M_y:up:0 !Vdd x _y !Vdd pch W=5u L=2u
Mb:dn:0 !GND _y b !GND nch W=5u L=2u
Mb:up:0 !Vdd _y b !Vdd pch W=5u L=2u
.ends
.subckt inv_c<> !GND !Vdd a b
* BEGIN node terminals
* 	!GND : xfirst:inst/M_x:dn:0.s xfirst:inst/M_x:dn:0.b xfirst:inst/Mx:dn:0.s xfirst:inst/Mx:dn:0.b xsecond:inst/M_y:dn:0.s xsecond:inst/M_y:dn:0.b xsecond:inst/Mb:dn:0.s xsecond:inst/Mb:dn:0.b
* 	!Vdd : xfirst:inst/M_x:up:0.s xfirst:inst/M_x:up:0.b xfirst:inst/Mx:up:0.s xfirst:inst/Mx:up:0.b xsecond:inst/M_y:up:0.s xsecond:inst/M_y:up:0.b xsecond:inst/Mb:up:0.s xsecond:inst/Mb:up:0.b
* 	_x : xfirst:inst/M_x:dn:0.d xfirst:inst/M_x:up:0.d xfirst:inst/Mx:dn:0.g xfirst:inst/Mx:up:0.g
* 	a : xfirst:inst/M_x:dn:0.g xfirst:inst/M_x:up:0.g
* 	x : xfirst:inst/Mx:dn:0.d xfirst:inst/Mx:up:0.d xsecond:inst/M_y:dn:0.g xsecond:inst/M_y:up:0.g
* 	_y : xsecond:inst/M_y:dn:0.d xsecond:inst/M_y:up:0.d xsecond:inst/Mb:dn:0.g xsecond:inst/Mb:up:0.g
* 	b : xsecond:inst/Mb:dn:0.d xsecond:inst/Mb:up:0.d
* END node terminals
xfirst:inst !GND !Vdd _x a x inv_c<>::first
xsecond:inst !GND !Vdd x _y b inv_c<>::second
.ends

* BEGIN node terminals
* 	!GND : xfoo.!GND
* 	!Vdd : xfoo.!Vdd
* 	foo.a : xfoo.a
* 	foo.b : xfoo.b
* END node terminals
xfoo !GND !Vdd foo.a foo.b inv_c<>

