* subcircuit globals<> is empty.
.subckt foo<> !GND g.Vdd_1 x w
M0_ !GND x y !GND nch W=5u L=2u
M1_ g.Vdd_1 x y g.Vdd_1 pch W=5u L=2u
M2_ !GND y z !GND nch W=5u L=2u
M3_ g.Vdd_1 y z g.Vdd_1 pch W=5u L=2u
M4_ !GND z w !GND nch W=5u L=2u
M5_ g.Vdd_1 z w g.Vdd_1 pch W=5u L=2u
.ends

xbar !GND bar.g.Vdd_1 bar.x bar.w foo<>

