.subckt foo<> !GND myVdd x w
M0_ !GND x y !GND nch W=5u L=2u
M1_ myVdd x y myVdd pch W=5u L=2u
M2_ !GND y z !GND nch W=5u L=2u
M3_ myVdd y z myVdd pch W=5u L=2u
M4_ !GND z w !GND nch W=5u L=2u
M5_ myVdd z w myVdd pch W=5u L=2u
.ends

xbar !GND bar.myVdd bar.x bar.w foo<>

