.subckt foo<> myVdd myGND x w
M0_ myGND x y myGND nch W=5u L=2u
M1_ myVdd x y myVdd pch W=5u L=2u
M2_ myGND y z myGND nch W=5u L=2u
M3_ myVdd y z myVdd pch W=5u L=2u
M4_ myGND z w myGND nch W=5u L=2u
M5_ myVdd z w myVdd pch W=5u L=2u
.ends

xbar bar.myVdd bar.myGND bar.x bar.w foo<>

