.subckt foo<> !GND !Vdd myVdd myGND x w
M0_ !GND x y !GND nch W=5u L=2u
M1_ myVdd x y myVdd pch W=5u L=2u
M2_ myGND y z myGND nch W=5u L=2u
M3_ myVdd y z myVdd pch W=5u L=2u
M4_ !GND z w !GND nch W=5u L=2u
M5_ !Vdd z w !Vdd pch W=5u L=2u
.ends

xbar !GND !Vdd bar.myVdd bar.myGND bar.x bar.w foo<>

