.subckt inv<> !GND !Vdd x y
My:dn:0 !GND x y !GND nch W=5u L=2u
My:up:0 !Vdd x y !Vdd pch W=5u L=2u
.ends

xa !GND !Vdd x a.y inv<>
xb !GND !Vdd x b.y inv<>
xc !GND !Vdd x c.y inv<>
xd myGND !Vdd x d.y inv<>
xd2 myGND !Vdd x d2.y inv<>
xe myGND !Vdd x e.y inv<>
xf !GND myVdd x f.y inv<>
xf2 !GND myVdd x f2.y inv<>
xg myGND myVdd x g.y inv<>

