* subcircuit globals<> is empty.
.subckt inv<> !GND !Vdd x y
M0_ !GND x y !GND nch W=5u L=2u
M1_ !Vdd x y !Vdd pch W=5u L=2u
.ends

.subckt foo<> g.Vdd_1 g.GND_1 in out
xa g.GND_1 g.Vdd_1 in out inv<>
.ends

.subckt bar<> a b
xf g.Vdd_1 g.GND_1 a b foo<>
.ends

xbq bq.a bq.b bar<>

