.subckt inv<> !GND !Vdd x y
My:dn:0 !GND x y !GND nch W=5u L=2u
My:up:0 !Vdd x y !Vdd pch W=5u L=2u
.ends

.subckt foo<> !GND !Vdd myVdd myGND
xa !GND !Vdd a.x a.y inv<>
xb !GND !Vdd b.x b.y inv<>
xc !GND !Vdd c.x c.y inv<>
xd myGND !Vdd d.x d.y inv<>
xd2 myGND !Vdd d2.x d2.y inv<>
xe myGND !Vdd e.x e.y inv<>
xf !GND myVdd f.x f.y inv<>
xg myGND myVdd g.x g.y inv<>
.ends

xbar !GND !Vdd bar.myVdd bar.myGND foo<>

* --- WARNINGS ---
Warning: node a.x is used but not driven!
Warning: node b.x is used but not driven!
Warning: node c.x is used but not driven!
Warning: node d.x is used but not driven!
Warning: node d2.x is used but not driven!
Warning: node e.x is used but not driven!
Warning: node f.x is used but not driven!
Warning: node g.x is used but not driven!
... in subcircuit foo<>
