.subckt inv<> !GND !Vdd x y
M0_ !GND x y !GND nch W=5u L=2u
M1_ !Vdd x y !Vdd pch W=5u L=2u
.ends

.subckt foo<> myVdd myGND in out
xa myGND myVdd in out inv<>
.ends

.subckt bar<> a b
xf f.myVdd f.myGND a b foo<>
.ends

xbq bq.a bq.b bar<>

