.subckt foo<> myVdd myGND x w
My:dn:0 myGND x y myGND nch W=5u L=2u
My:up:0 myVdd x y myVdd pch W=5u L=2u
Mz:dn:0 myGND y z myGND nch W=5u L=2u
Mz:up:0 myVdd y z myVdd pch W=5u L=2u
Mw:dn:0 myGND z w myGND nch W=5u L=2u
Mw:up:0 myVdd z w myVdd pch W=5u L=2u
.ends

xbar bar.myVdd bar.myGND bar.x bar.w foo<>

