* subcircuit globals<> is empty.
.subckt foo<> !Vdd g.GND_2 x w
M0_ g.GND_2 x y g.GND_2 nch W=5u L=2u
M1_ !Vdd x y !Vdd pch W=5u L=2u
M2_ g.GND_2 y z g.GND_2 nch W=5u L=2u
M3_ !Vdd y z !Vdd pch W=5u L=2u
M4_ g.GND_2 z w g.GND_2 nch W=5u L=2u
M5_ !Vdd z w !Vdd pch W=5u L=2u
.ends

xbar !Vdd bar.g.GND_2 bar.x bar.w foo<>

