* channel or struct globals<> is omitted.

.subckt inv<> !GND !Vdd x y
My:dn:0 !GND x y !GND nch W=5u L=2u
My:up:0 !Vdd x y !Vdd pch W=5u L=2u
.ends

xfoo g.GND_2 !Vdd foo.x foo.y inv<>

