* subcircuit globals<> is empty.
.subckt inv<> !GND !Vdd x y
M0_ !GND x y !GND nch W=5u L=2u
M1_ !Vdd x y !Vdd pch W=5u L=2u
.ends

xfoo g.GND_2 !Vdd foo.x foo.y inv<>

