.subckt foo<>::INTSUB:0 @a !GND _y en x
M@a:dn:0 !GND en @a !GND nch W=5u L=2u
M_y:dn:0 @a x _y !GND nch W=5u L=2u
.ends
.subckt foo<> !GND en x _y
* BEGIN node terminals
* 	@a : xINTSUB:0:inst/M@a:dn:0.d xINTSUB:0:inst/M_y:dn:0.s
* 	!GND : xINTSUB:0:inst/M@a:dn:0.s xINTSUB:0:inst/M@a:dn:0.b xINTSUB:0:inst/M_y:dn:0.b
* 	!Vdd :
* 	_y : xINTSUB:0:inst/M_y:dn:0.d
* 	en : xINTSUB:0:inst/M@a:dn:0.g
* 	x : xINTSUB:0:inst/M_y:dn:0.g
* END node terminals
xINTSUB:0:inst @a !GND _y en x foo<>::INTSUB:0
.ends


