.subckt inv<> !GND !Vdd x y
My:dn:0 !GND x y !GND nch W=13u L=2u
My:up:0 !Vdd x y !Vdd pch W=13u L=2u
.ends

xfoo !GND !Vdd foo.x foo.y inv<>

* --- WARNINGS ---
Warning: node top<>::foo.x has no pull-up nor pull-dn PRS fanin.
Warnings found (1) while creating complete type top<>.
