.subckt foo<> !GND !Vdd z
Mz:dn:0 !GND x z !GND nch W=5u L=2u
Mz:up:0 !Vdd x z !Vdd pch W=5u L=2u
.ends

xbar !GND !Vdd bar.z foo<>

* --- WARNINGS ---
Warning: node x is used but not driven!
... in subcircuit foo<>
